@<TRIPOS>MOLECULE
*****
 13 13 0 0 0
SMALL
GASTEIGER

@<TRIPOS>ATOM
      1 O           1.1048    0.0026    0.1748 O.3     1  UNL1       -0.5068
      2 C           2.3749    0.0176    0.0888 C.ar    1  UNL1        0.1169
      3 C           3.1229    1.2063    0.0555 C.ar    1  UNL1       -0.0202
      4 C           4.5170    1.2398   -0.0386 C.ar    1  UNL1       -0.0583
      5 C           5.2291    0.0513   -0.1044 C.ar    1  UNL1       -0.0615
      6 C           4.5427   -1.1537   -0.0755 C.ar    1  UNL1       -0.0583
      7 C           3.1483   -1.1532    0.0191 C.ar    1  UNL1       -0.0202
      8 H           0.6286    0.8084    0.2189 H       1  UNL1        0.2921
      9 H           2.6154    2.1036    0.1031 H       1  UNL1        0.0654
     10 H           5.0139    2.1440   -0.0591 H       1  UNL1        0.0619
     11 H           6.2587    0.0635   -0.1741 H       1  UNL1        0.0618
     12 H           5.0590   -2.0460   -0.1237 H       1  UNL1        0.0619
     13 H           2.6602   -2.0622    0.0389 H       1  UNL1        0.0654
@<TRIPOS>BOND
     1     1     2    1
     2     2     3   ar
     3     3     4   ar
     4     4     5   ar
     5     5     6   ar
     6     6     7   ar
     7     2     7   ar
     8     1     8    1
     9     3     9    1
    10     4    10    1
    11     5    11    1
    12     6    12    1
    13     7    13    1
